/*--------------------------------*- C++ -*----------------------------------*\
  =========                 |
  \\      /  F ield         | OpenFOAM: The Open Source CFD Toolbox
   \\    /   O peration     | Website:  https://openfoam.org
    \\  /    A nd           | Version:  10
     \\/     M anipulation  |
\*---------------------------------------------------------------------------*/
FoamFile
{
    format      ascii;
    class       volScalarField;
    location    "0";
    object      alphat;
}
// * * * * * * * * * * * * * * * * * * * * * * * * * * * * * * * * * * * * * //

dimensions      [1 -1 -1 0 0 0 0];

internalField   uniform 0;

boundaryField
{
	outlet
	{
        type            calculated;
        value           uniform 0;
	}
	
	combustion-chamber
	{
        type            compressible::alphatWallFunction;
        Prt             0.85;
        value           uniform 0;
	}
	air-inlet
	{
        type            calculated;
        value           uniform 0;
	}
	plenum
	{
        type            compressible::alphatWallFunction;
        Prt             0.85;
        value           uniform 0;
	}
	mixing-chamber
	{
        type            compressible::alphatWallFunction;
        Prt             0.85;
        value           uniform 0;
	}
	orifice-8mm
	{
        type            compressible::alphatWallFunction;
        Prt             0.85;
        value           uniform 0;
	}
	fuel-inlet1
	{
        type            calculated;
        value           uniform 0;
	}
	fuel-inlet2
	{
        type            calculated;
        value           uniform 0;
	}
	fuel-passage
	{
        type            compressible::alphatWallFunction;
        Prt             0.85;
        value           uniform 0;
	}
	lean
	{
        type            compressible::alphatWallFunction;
        Prt             0.85;
        value           uniform 0;
	}
	swirl
	{
        type            compressible::alphatWallFunction;
        Prt             0.85;
        value           uniform 0;
	}
	fuel-n
	{
        type            compressible::alphatWallFunction;
        Prt             0.85;
        value           uniform 0;
	}
}


// ************************************************************************* //
