/*--------------------------------*- C++ -*----------------------------------*\
  =========                 |
  \\      /  F ield         | OpenFOAM: The Open Source CFD Toolbox
   \\    /   O peration     | Website:  https://openfoam.org
    \\  /    A nd           | Version:  10
     \\/     M anipulation  |
\*---------------------------------------------------------------------------*/
FoamFile
{
    format      ascii;
    class       volScalarField;
    location    "0";
    object      p;
}
// * * * * * * * * * * * * * * * * * * * * * * * * * * * * * * * * * * * * * //

dimensions      [1 -1 -2 0 0 0 0];

internalField   uniform 101325;

boundaryField
{


//////////////////////////////////////////////////////
	outlet
	{
        type            freestreamPressure;
        freestreamValue $internalField;
	}
////////////////////////////////////////////////////	
	combustion-chamber
	{
        type            zeroGradient;
	}
///////////////////////////////////////////////////
	air-inlet
	{
        type            zeroGradient;
	}
/////////////////////////////////////////////////
	plenum
	{
        type            zeroGradient;
	}
	mixing-chamber
	{
        type            zeroGradient;
	}
	orifice-8mm
	{
        type            zeroGradient;
	}
////////////////////////////////////////////////
	fuel-inlet1
	{
        type            zeroGradient;
	}
	fuel-inlet2
	{
        type            zeroGradient;
	}
///////////////////////////////////////////////
	fuel-passage
	{
        type            zeroGradient;
	}
	lean
	{
        type            zeroGradient;
	}
	swirl
	{
        type            zeroGradient;
	}
	fuel-n
	{
        type            zeroGradient;
	}
}


// ************************************************************************* //
