/*--------------------------------*- C++ -*----------------------------------*\
  =========                 |				
  \\      /  F ield         | OpenFOAM: The Open Source CFD Toolbox
   \\    /   O peration     | Website:  https://openfoam.org
    \\  /    A nd           | Version:  9                                   	
     \\/     M anipulation  |
\*---------------------------------------------------------------------------*/
FoamFile
{
    version     2.0;
    format      ascii;
    class       dictionary;
    object      controlDict;
}
// * * * * * * * * * * * * * * * * * * * * * * * * * * * * * * * * * * * * * //

application     reactingFoam;

startFrom       startTime;

startTime       0.35;

stopAt          endTime;

endTime         0.45;

deltaT          1e-6;

writeControl    timeStep; 

writeInterval   100;

purgeWrite      3;

writeFormat     binary;	

writePrecision  8;

writeCompression off;

timeFormat      general;

timePrecision   6;

runTimeModifiable true;

OptimisationSwitches
{
    fileHandler collated;
    maxThreadFileBufferSize 5e9;
}

libs
(

	"libDTFcombustion.so"
	"libDTFtransport.so"
);

// ************************************************************************* //

