/*--------------------------------*- C++ -*----------------------------------*\
  =========                 |
  \\      /  F ield         | OpenFOAM: The Open Source CFD Toolbox
   \\    /   O peration     | Website:  https://openfoam.org
    \\  /    A nd           | Version:  10
     \\/     M anipulation  |
\*---------------------------------------------------------------------------*/
FoamFile
{
    format      ascii;
    class       dictionary;
    object      fvSchemes;
}
// * * * * * * * * * * * * * * * * * * * * * * * * * * * * * * * * * * * * * //

ddtSchemes
{
    default         backward;
}

gradSchemes
{
    default         Gauss linear;

    limited         cellLimited Gauss linear 1;
    grad(U)         $limited;
    grad(k)         $limited;
    grad(omega)     $limited;
}

divSchemes
{
     default             none;

    div(phi,U)          Gauss limitedLinearV 0.5;
    div(phi,Yi)         Gauss limitedLinear01 0.5;
    div(phi,h)          Gauss limitedLinear 0.5;
    div(phi,K)          Gauss limitedLinear 0.5;
    div(phid,p)         Gauss limitedLinear 0.5;
    div(phi,omega)    Gauss limitedLinear 0.5;
    div(phi,Yi_h)       Gauss limitedLinear01 0.5;
    div(phi,k)          Gauss limitedLinear 0.5;
    div(((rho*nuEff)*dev2(T(grad(U)))))     Gauss linear;
    div(heatFluxCorr) Gauss linear;
}

laplacianSchemes
{
       default         Gauss linear corrected;

}

interpolationSchemes
{
    default         linear;
}

snGradSchemes
{
    default         corrected;

}

wallDist
{
    method meshWave;
}

// ************************************************************************* //
