/*--------------------------------*- C++ -*----------------------------------*\
  =========                 |				
  \\      /  F ield         | OpenFOAM: The Open Source CFD Toolbox
   \\    /   O peration     | Website:  https://openfoam.org
    \\  /    A nd           | Version:  9                                   	
     \\/     M anipulation  |
\*---------------------------------------------------------------------------*/
FoamFile
{
    format      ascii;
    class       dictionary;
    object      sample;
}
// * * * * * * * * * * * * * * * * * * * * * * * * * * * * * * * * * * * * * //

type sets;
libs ("libsampling.so");

interpolationScheme cellPoint;

setFormat csv;

sets
(
    x=5
    {
        type            lineCell;
        axis            xyz;
        start           (0 -0.05 0.00541405);
        end             (0 0.05  0.00541405);
    }
    x=9
    {
        type            lineCell;
        axis            xyz;
        start           (0 -0.05 0.00935154);
        end             (0 0.05  0.00935154);
    }
    x=21
    {
        type            lineCell;
        axis            xyz;
        start           (0 -0.05 0.021164);
        end             (0 0.05  0.021164);
    }

    x=40
    {
        type            lineCell;
        axis            xyz;
        start           (0 -0.05 0.0408515);
        end             (0 0.05  0.0408515);
    }
);

fields
(
    UMean
    UPrime2Mean
    TMean
    OHMean
    H2OMean
    NOMean
    O2Mean
);

// ************************************************************************* //
