/*--------------------------------*- C++ -*----------------------------------*\
| =========                 |                                                 |
| \\      /  F ield         | OpenFOAM: The Open Source CFD Toolbox           |
|  \\    /   O peration     | Version:  v2112                                 |
|   \\  /    A nd           | Website:  www.openfoam.com                      |
|    \\/     M anipulation  |                                                 |
\*---------------------------------------------------------------------------*/
FoamFile
{
    version     2.0;
    format      ascii;
    class       dictionary;
    object      setFieldsDict;
}
// * * * * * * * * * * * * * * * * * * * * * * * * * * * * * * * * * * * * * //

regions
(
    boxToCell
    {
        box (0 0 0) (0.05 0.1 0.1);
        fieldValues
        (
	    volVectorFieldValue U (0.026 0 0)
            volScalarFieldValue T 300
            volScalarFieldValue O2 0.229629
            volScalarFieldValue H2 0.014468
	    volScalarFieldValue N2 0.755903
        );
    }
);


// ************************************************************************* //
