/*--------------------------------*- C++ -*----------------------------------*\
  =========                 |
  \\      /  F ield         | OpenFOAM: The Open Source CFD Toolbox
   \\    /   O peration     | Website:  https://openfoam.org
    \\  /    A nd           | Version:  10
     \\/     M anipulation  |
\*---------------------------------------------------------------------------*/
FoamFile
{
    format      ascii;
    class       dictionary;
    location    "constant";
    object      combustionProperties;
}
// * * * * * * * * * * * * * * * * * * * * * * * * * * * * * * * * * * * * * //


combustionModel  DTF;

DTFCoeffs
{

    //efficiencyFunction none;
    efficiencyFunction colin;

    colinCoeffs
    {
    alpha 0.02; 
    }

    Fmax          15;           // Maximum thickening factor
    N             3;            // Control parameter for flame thickening
    Prt           0.85;
    FlameSpeed    true;
    deltaL        0.001;
    SL            3;
    lowerLimit    0.9999;
    upperLimit    1;
    filters       2;

    //flameSensor none; //tanh; //
    flameSensor tanh;

    tanhCoeffs {
    beta 10;
    n_filters 10;
    }
}


// ************************************************************************* //
