/*--------------------------------*- C++ -*----------------------------------*\
  =========                 |
  \\      /  F ield         | OpenFOAM: The Open Source CFD Toolbox
   \\    /   O peration     | Website:  https://openfoam.org
    \\  /    A nd           | Version:  10
     \\/     M anipulation  |
\*---------------------------------------------------------------------------*/
FoamFile
{
    format      ascii;
    class       dictionary;
    object      fvConstraints;
}
// * * * * * * * * * * * * * * * * * * * * * * * * * * * * * * * * * * * * * //

limitp
	{
    	type       limitPressure;
    	min             -50662.5;
    	max             202650;
    
	}
limitT
	{
    	type       limitTemperature;
    	min        300;
    	max        3000;
    	selectionMode all;
	}

limitU
	{
	type            limitMag;
        selectionMode   all;
        field           U;
        max             875;
	}

//************************************************************************** //
